[General]
network = Sulutgo

# UDP Settings
**.cli[*].numUdpApps = 1
**.cli[*].udpApp[0].typename = "UDPBasicApp"
**.cli[*].udpApp[0].destPort = 1234
**.cli[*].udpApp[0].messageLength = 32KiB
**.cli[*].udpApp[0].sendInterval = uniform(0.5s, 2s)

**.srv[*].numUdpApps = 1
**.srv[*].udpApp[0].typename = "UDPEchoApp"
**.srv[*].udpApp[0].localPort = 1234

# TCP Settings
**.srv[*].numTcpApps = 2
**.srv[*].tcpApp[*].typename = "TCPGenericSrvApp"
**.srv[*].tcpApp[0].localPort = 21
**.srv[*].tcpApp[1].localPort = 80

**.cli[*].numTcpApps = 1
**.cli[*].tcpApp[*].typename = "TCPBasicClientApp"
**.cli[*].tcpApp[*].thinkTime = uniform(1s, 10s)
**.cli[*].tcpApp[*].idleInterval = uniform(1s, 30s)
**.cli[*].tcpApp[*].startTime = uniform(1s, 10s)

**.tcpApp[*].dataTransferMode = "object"

**.RT_*.eth[*].num*Hooks = 1
**.srv[*].eth[*].num*Hooks = 1
**.eth[*].*Hook[0].typename = "ThruputMeter"

[Config Test1]
sim-time-limit = 60s
**.n = 10
**.s = 1
#**.cli[*].udpApp[0].destAddresses = "Manado_Net.srv[0]"
**.cli[*].tcpApp[0].connectAddress = "Manado_Net.srv[0]"
**.cli[*].tcpApp[0].requestLength = 200B
**.cli[*].tcpApp[0].replyLength = 10MiB
**.cli[*].tcpApp[0].connectPort = 80
**.cli[*].tcpApp[0].startTime = 1s

[Config Test2]
sim-time-limit = 60s
**.n = 10
**.s = 5
**.cli[*].udpApp[0].destAddresses = "Manado_Net.srv[2] Manado_Net.srv[3] Manado_Net.srv[4]"

**.cli[0..4].tcpApp[0].connectAddress = "Manado_Net.srv[0]"
**.cli[0..4].tcpApp[0].connectPort = 80
**.cli[0..4].tcpApp[0].numRequestsPerSession = 1 #(HTTP 1.0)
**.cli[0..4].tcpApp[0].requestLength = truncnormal(350B,20B)
**.cli[0..4].tcpApp[0].replyLength = exponential(2000B)

**.cli[5..9].tcpApp[0].connectAddress = "Manado_Net.srv[1]"
**.cli[5..9].tcpApp[0].connectPort = 21
**.cli[5..9].tcpApp[0].numRequestsPerSession = exponential(3)
**.cli[5..9].tcpApp[0].requestLength = truncnormal(20B,5B)
**.cli[5..9].tcpApp[0].replyLength = exponential(1000000B)

[Config Test3]
description = "IP configured and using RIP"
sim-time-limit = 120s
**.RT_*.hasRIP = true

**.n = 10
**.s = 1

**.configurator.config = xmldoc("IPConfig.xml")
**.configurator.addStaticRoutes = false

**.cli[*].udpApp[0].destAddresses = "Manado_Net.srv[0]"

**.cli[*].tcpApp[0].connectAddress = "Manado_Net.srv[0]"
**.cli[0..4].tcpApp[0].connectPort = 80
**.cli[0..4].tcpApp[0].numRequestsPerSession = 1 #(HTTP 1.0)
**.cli[0..4].tcpApp[0].requestLength = truncnormal(350B,20B)
**.cli[0..4].tcpApp[0].replyLength = exponential(2000B)

**.cli[5..9].tcpApp[0].connectPort = 21
**.cli[5..9].tcpApp[0].numRequestsPerSession = exponential(3)
**.cli[5..9].tcpApp[0].requestLength = truncnormal(20B,5B)
**.cli[5..9].tcpApp[0].replyLength = exponential(1000000B)
**.cli[*].**.startTime = 60s

[Config OSPFSingleAreaTest]
description = "All networks within single OSPF Area"
sim-time-limit = 120s
**.hasOSPF = true
**.ospf.ospfConfig = xmldoc("SingleArea.xml")

**.n = 1
**.s = 1

**.configurator.config = xmldoc("IPConfig.xml")
**.configurator.addStaticRoutes = false

**.cli[*].udpApp[0].destAddresses = "Manado_Net.srv[0]"

**.cli[*].tcpApp[0].connectAddress = "Manado_Net.srv[0]"
**.cli[*].tcpApp[0].connectPort = 80
**.cli[*].tcpApp[0].numRequestsPerSession = 1 #(HTTP 1.0)
**.cli[*].tcpApp[0].requestLength = truncnormal(350B,20B)
**.cli[*].tcpApp[0].replyLength = exponential(2000B)
**.cli[*].**.startTime = 60s

[Config OSPFMultiAreasTest]
description = "All networks divided into 5 OSPF Areas, no Stub, no Virtual Link"
sim-time-limit = 120s
**.hasOSPF = true
**.ospf.ospfConfig = xmldoc("MultiAreas.xml")

**.n = 1
**.s = 1

**.configurator.config = xmldoc("IPConfig.xml")
**.configurator.addStaticRoutes = false

**.cli[*].udpApp[0].destAddresses = "Manado_Net.srv[0]"

**.cli[*].tcpApp[0].connectAddress = "Manado_Net.srv[0]"
**.cli[*].tcpApp[0].connectPort = 80
**.cli[*].tcpApp[0].numRequestsPerSession = 1 #(HTTP 1.0)
**.cli[*].tcpApp[0].requestLength = truncnormal(350B,20B)
**.cli[*].tcpApp[0].replyLength = exponential(2000B)
**.cli[*].**.startTime = 60s

[Config OSPFMultiAreasTestwithStub]
description = "All networks divided into 5 OSPF Areas, Stub defined, no Virtual Link"
sim-time-limit = 120s
**.hasOSPF = true
**.ospf.ospfConfig = xmldoc("MultiAreasWithStub.xml")

**.n = 1
**.s = 1

**.configurator.config = xmldoc("IPConfig.xml")
**.configurator.addStaticRoutes = false

**.cli[*].udpApp[0].destAddresses = "Manado_Net.srv[0]"

**.cli[*].tcpApp[0].connectAddress = "Manado_Net.srv[0]"
**.cli[*].tcpApp[0].connectPort = 80
**.cli[*].tcpApp[0].numRequestsPerSession = 1 #(HTTP 1.0)
**.cli[*].tcpApp[0].requestLength = truncnormal(350B,20B)
**.cli[*].tcpApp[0].replyLength = exponential(2000B)
**.cli[*].**.startTime = 60s

[Config OSPFFullConfigTest]
description = "All OSPF Settings are applied"
sim-time-limit = 300s
**.hasOSPF = true
**.ospf.ospfConfig = xmldoc("FullConfig.xml")
*.RT_Manado.routingTable.routerId = "172.16.6.9"
*.RT_Inobonto.routingTable.routerId = "172.16.6.14"

**.n = 1
**.s = 1

**.configurator.config = xmldoc("IPConfig.xml")
**.configurator.addStaticRoutes = false

**.cli[*].udpApp[0].destAddresses = "Manado_Net.srv[0]"

**.cli[*].tcpApp[0].connectAddress = "Manado_Net.srv[0]"
**.cli[*].tcpApp[0].connectPort = 80
**.cli[*].tcpApp[0].numRequestsPerSession = 1 #(HTTP 1.0)
**.cli[*].tcpApp[0].requestLength = truncnormal(350B,20B)
**.cli[*].tcpApp[0].replyLength = exponential(2000B)
**.cli[*].**.startTime = 60s

[Config FullSet]
description = "Without virtual link"
sim-time-limit = 1000s

**.hasOSPF = true
#**.ospf.ospfConfig = xmldoc("FullConfig.xml")
**.ospf.ospfConfig = xmldoc("MultiAreasWithStub.xml")

**.s = 8

*.Manado_Net.n = 700
*.Bintauna_Net.n = 150
*.Popayato_Net.n = 54
*.Kwandang_Net.n = 81
*.Ibolian_Net.n = 9
*.Inobonto_Net.n = 33
*.Ilongkou_Net.n = 13
*.Kotamobagu_Net.n = 311

**.configurator.config = xmldoc("IPConfig.xml")
**.configurator.addStaticRoutes = false
**.interfaceTable.displayAddresses = false

**.cli[*].udpApp[0].destAddresses = "Manado_Net.srv[2] Manado_Net.srv[3] Manado_Net.srv[4] Manado_Net.srv[5] Manado_Net.srv[6] Manado_Net.srv[7]"

**.cli[*].numTcpApps = 2

**.cli[*].tcpApp[0].connectAddress = "Manado_Net.srv[0]"
**.cli[*].tcpApp[0].connectPort = 80
**.cli[*].tcpApp[0].numRequestsPerSession = 1 #(HTTP 1.0)
**.cli[*].tcpApp[0].requestLength = truncnormal(350B,20B)
**.cli[*].tcpApp[0].replyLength = exponential(2000B)

**.cli[*].tcpApp[*].connectAddress = "Manado_Net.srv[1]"
**.cli[*].tcpApp[1].connectPort = 21
**.cli[*].tcpApp[1].numRequestsPerSession = exponential(3)
**.cli[*].tcpApp[1].requestLength = truncnormal(20B,5B)
**.cli[*].tcpApp[1].replyLength = exponential(1000000B)
**.cli[*].**.startTime = 60s